[TITLE]


[JUNCTIONS]
;ID              	Elev        	Demand      	Pattern         
 0      	376.06999999999999	0.763534    	0       	;
 1      	192.0       	0           	                	;
 2      	363.13999999999999	0.830000    	0       	;
 3      	428.06999999999999	4.400000    	0       	;
 4      	477.81      	3.836466    	0       	;
 5      	494.23000000000002	3.529833    	0       	;
 6      	505.0       	1.850000    	0       	;
 7      	535.23000000000002	0           	                	;
 8      	493.42000000000002	1.540000    	0       	;
 9      	488.29000000000002	0           	                	;
 10     	333.62      	0.341497    	0       	;
 11     	344.10000000000002	1.049859    	0       	;
 12     	379.5       	0.025149    	0       	;
 13     	325.94999999999999	0           	                	;
 14     	416.85000000000002	0           	                	;
 15     	423.49000000000001	1.320167    	0       	;
 16     	383.0       	0           	                	;
 17     	385.06      	25.715680   	0       	;
 18     	478.14999999999998	6.182285    	0       	;
 19     	558.92999999999995	4.603554    	0       	;
 20     	617.73000000000002	2.580000    	0       	;
 21     	652.41999999999996	0           	                	;
 22     	625.96000000000004	4.290000    	0       	;
 23     	604.34000000000003	3.194580    	0       	;
 24     	636.61000000000001	0           	                	;
 25     	653.92999999999995	5.970000    	0       	;
 26     	683.42999999999995	0           	                	;
 27     	690.64999999999998	12.442156   	0       	;
 28     	701.69000000000005	2.092553    	0       	;
 29     	846.27999999999997	0           	                	;
 30     	636.0       	116.764931  	0       	;
 31     	600.42999999999995	2.370000    	0       	;
 32     	625.85000000000002	6.160000    	0       	;
 33     	622.77999999999997	0.958345    	0       	;
 34     	200.0       	37.035069   	0       	;
 35     	651.97000000000003	9.239535    	0       	;
 36     	634.11000000000001	0           	                	;
 37     	677.04999999999995	3.286911    	0       	;
 38     	646.50999999999999	0           	                	;
 39     	703.19000000000005	4.907129    	0       	;
 40     	741.63      	3.393717    	0       	;
 41     	700.22000000000003	3.052871    	0       	;
 42     	728.04999999999995	11.414126   	0       	;
 43     	653.09000000000003	3.310000    	0       	;
 44     	678.5       	5.167447    	0       	;
 45     	747.32000000000005	9.354966    	0       	;
 46     	820.24000000000001	4.365034    	0       	;
 47     	640.47000000000003	0           	                	;
 48     	637.45000000000005	0           	                	;
 49     	623.89999999999998	1.140000    	0       	;
 50     	611.08000000000004	3.811622    	0       	;
 51     	623.67999999999995	3.010000    	0       	;
 52     	613.26999999999998	4.918378    	0       	;
 53     	607.63      	3.030000    	0       	;
 54     	602.11000000000001	4.190000    	0       	;
 55     	603.34000000000003	3.080000    	0       	;
 56     	606.94000000000005	0           	                	;
 57     	617.97000000000003	0.431655    	0       	;
 58     	610.21000000000004	22.020000   	0       	;
 59     	620.95000000000005	0           	                	;
 60     	623.99000000000001	0           	                	;
 61     	625.38      	0           	                	;
 62     	625.39999999999998	0           	                	;
 63     	623.95000000000005	0           	                	;
 64     	623.13      	0           	                	;
 65     	619.37      	0           	                	;
 66     	619.72000000000003	0           	                	;
 67     	624.5       	0           	                	;
 68     	617.08000000000004	20.900000   	0       	;
 69     	626.0       	2.460000    	0       	;
 70     	619.11000000000001	6.250000    	0       	;
 71     	632.17999999999995	2.030000    	0       	;
 72     	622.35000000000002	2.793147    	0       	;
 73     	620.37      	2.630000    	0       	;
 74     	622.34000000000003	1.070000    	0       	;
 75     	629.15999999999997	2.546853    	0       	;
 76     	622.54999999999995	2.670000    	0       	;
 77     	624.63999999999999	1.820000    	0       	;
 78     	618.01999999999998	0           	                	;
 79     	617.88999999999999	0           	                	;
 80     	616.88999999999999	0           	                	;
 81     	623.58000000000004	3.460000    	0       	;
 82     	618.75999999999999	10.220000   	0       	;
 83     	617.71000000000004	7.541160    	0       	;
 84     	619.92999999999995	2.878840    	0       	;
 85     	620.25      	0           	                	;
 86     	623.48000000000002	0           	                	;
 87     	622.25999999999999	0           	                	;
 88     	621.69000000000005	0           	                	;
 89     	626.80999999999995	7.340000    	0       	;
 90     	644.09000000000003	0           	                	;
 91     	637.44000000000005	0           	                	;
 92     	628.24000000000001	0           	                	;
 93     	643.74000000000001	13.990000   	0       	;
 94     	633.48000000000002	2.130000    	0       	;
 95     	630.86000000000001	2.969609    	0       	;
 96     	629.13999999999999	6.100391    	0       	;
 97     	628.99000000000001	4.450000    	0       	;
 98     	643.04999999999995	5.966633    	0       	;
 99     	641.88999999999999	7.173367    	0       	;
 100    	637.89999999999998	5.888099    	0       	;
 101    	645.09000000000003	0.661901    	0       	;
 102    	1094.0699999999999	102.100000  	0       	;
 103    	1031.73     	0.755915    	1       	;
 104    	860.63999999999999	0.044085    	1       	;
 105    	0.0         	0           	                	;
 106    	0.0         	0           	                	;
 109    	0.0         	0           	                	;
 110    	0.0         	0           	                	;
 111    	418.0       	0           	                	;
 112    	418.0       	0           	                	;
 113    	359.0       	0           	                	;
 114    	359.0       	0.313495    	0       	;
 115    	533.0       	0           	                	;
 116    	533.0       	4.567715    	0       	;
 117    	404.0       	49.284320   	0       	;
 118    	404.0       	105.365812  	0       	;
 119    	849.0       	0           	                	;
 120    	849.0       	0           	                	;
 121    	957.0       	0           	                	;
 122    	957.0       	1.446928    	0       	;
 123    	758.0       	3.243072    	0       	;
 124    	758.0       	1.015420    	0       	;
 125    	434.0       	0           	                	;
 126    	434.0       	197.664188  	0       	;
 128    	0.0         	0           	                	;

[RESERVOIRS]
;ID              	Head        	Pattern         
 129   	425.0       	                	;

[TANKS]
;ID              	Elevation   	InitLevel   	MinLevel    	MaxLevel    	Diameter    	MinVol      	VolCurve
 130        	843.89999999999998	15.159000   	0.000000    	32.100000   	186.000000  	0.000000    	                	;
 131        	1137.0999999999999	17.945000   	0.000000    	41.900000   	106.000000  	0.000000    	                	;

[PIPES]
;ID              	Node1           	Node2           	Length      	Diameter    	Roughness   	MinorLoss   	Status
 0          	118    	126    	7401.000000 	20.453411   	138.000000  	0.000000    	Open  	;
 1          	17     	0      	359.000000  	7.999894    	139.000000  	0.000000    	Open  	;
 2          	0      	2      	324.000000  	7.999894    	139.000000  	0.000000    	Open  	;
 3          	3      	4      	697.000000  	7.999810    	139.000000  	0.000000    	Open  	;
 6          	5      	4      	574.000000  	7.999807    	139.000000  	0.000000    	Open  	;
 7          	5      	6      	238.000000  	7.999912    	139.000000  	0.000000    	Open  	;
 8          	6      	7      	502.000000  	8.000000    	139.000000  	0.000000    	Open  	;
 9          	8      	6      	396.000000  	7.999894    	139.000000  	0.000000    	Open  	;
 10         	9      	8      	377.000000  	7.999894    	139.000000  	0.000000    	Open  	;
 11         	18     	9      	308.000000  	7.999947    	139.000000  	0.000000    	Open  	;
 12         	9      	8      	837.000000  	7.999841    	139.000000  	0.000000    	Open  	;
 13         	2      	113    	56.000000   	8.000000    	138.000000  	0.000000    	Open  	;
 14         	114    	10     	599.000000  	7.999901    	138.000000  	0.000000    	Open  	;
 15         	1      	109    	125.000000  	16.000000   	138.000000  	0.000000    	Open  	;
 16         	10     	11     	409.000000  	7.999841    	138.000000  	0.000000    	Open  	;
 17         	110    	34     	124.000000  	12.000000   	138.000000  	0.000000    	Open  	;
 18         	128    	1      	320.000000  	30.000000   	138.000000  	0.000000    	Open  	;
 19         	129   	128    	51.000000   	30.000000   	138.000000  	0.000000    	Open  	;
 20         	12     	13     	597.000000  	8.000000    	140.000000  	0.000000    	Open  	;
 21         	12     	11     	671.000000  	7.999810    	138.000000  	0.000000    	Open  	;
 22         	14     	12     	332.000000  	7.999863    	139.000000  	0.000000    	Open  	;
 23         	5      	15     	2089.000000 	7.999852    	139.000000  	0.000000    	Open  	;
 24         	15     	3      	50.000000   	8.000000    	139.000000  	0.000000    	Open  	;
 25         	15     	111    	57.000000   	8.000000    	140.000000  	0.000000    	Open  	;
 26         	112    	14     	69.000000   	8.000000    	140.000000  	0.000000    	Open  	;
 27         	14     	16     	928.000000  	8.000000    	140.000000  	0.000000    	Open  	;
 28         	17     	18     	1382.000000 	16.000290   	138.000000  	0.000000    	Open  	;
 29         	18     	116    	731.000000  	16.000150   	138.000000  	0.000000    	Open  	;
 30         	0      	4      	1570.000000 	7.999764    	139.000000  	0.000000    	Open  	;
 31         	29     	28     	1402.000000 	24.000489   	138.000000  	0.000000    	Open  	;
 32         	45     	46     	1811.000000 	7.999830    	140.000000  	0.000000    	Open  	;
 33         	23     	124    	1845.000000 	12.000000   	140.000000  	0.000000    	Open  	;
 34         	122    	123    	2433.000000 	12.000000   	140.000000  	0.000000    	Open  	;
 35         	34     	30     	10260.284142	24.000979   	138.000000  	0.000000    	Open  	;
 36         	41     	39     	1066.000000 	7.999947    	138.000000  	0.000000    	Open  	;
 37         	2      	3      	1066.000000 	7.999796    	139.000000  	0.000000    	Open  	;
 38         	11     	10     	1000.000000 	7.999805    	138.000000  	0.000000    	Open  	;
 39         	117    	17     	1537.000000 	16.000075   	138.000000  	0.000000    	Open  	;
 40         	20     	21     	2125.000000 	20.000594   	138.000000  	0.000000    	Open  	;
 41         	20     	115    	3227.000000 	16.000327   	138.000000  	0.000000    	Open  	;
 42         	19     	125    	2125.000000 	20.000167   	138.000000  	0.000000    	Open  	;
 43         	19     	20     	942.000000  	20.000000   	138.000000  	0.000000    	Open  	;
 44         	21     	22     	1257.000000 	20.000439   	138.000000  	0.000000    	Open  	;
 45         	22     	23     	1101.000000 	24.000739   	138.000000  	0.000000    	Open  	;
 46         	23     	30     	1175.000000 	24.000727   	138.000000  	0.000000    	Open  	;
 47         	22     	24     	292.000000  	24.000000   	138.000000  	0.000000    	Open  	;
 48         	24     	25     	178.000000  	24.000000   	138.000000  	0.000000    	Open  	;
 49         	25     	26     	336.000000  	24.000000   	138.000000  	0.000000    	Open  	;
 50         	26     	27     	76.000000   	24.000000   	138.000000  	0.000000    	Open  	;
 51         	27     	28     	144.000000  	24.000000   	138.000000  	0.000000    	Open  	;
 52         	30     	31     	1146.000000 	12.000000   	138.000000  	0.000000    	Open  	;
 53         	31     	32     	1699.000000 	12.000000   	138.000000  	0.000000    	Open  	;
 54         	32     	33     	645.000000  	12.000000   	138.000000  	0.000000    	Open  	;
 55         	33     	57     	754.000000  	8.413870    	138.000000  	0.000000    	Open  	;
 56         	19     	35     	1113.000000 	7.999903    	140.000000  	0.000000    	Open  	;
 57         	35     	36     	507.000000  	8.000000    	140.000000  	0.000000    	Open  	;
 58         	35     	37     	246.000000  	7.999947    	140.000000  	0.000000    	Open  	;
 59         	37     	20     	739.000000  	7.999947    	138.000000  	0.000000    	Open  	;
 60         	35     	38     	552.000000  	8.000000    	140.000000  	0.000000    	Open  	;
 61         	37     	39     	348.000000  	8.000000    	138.000000  	0.000000    	Open  	;
 62         	39     	40     	998.000000  	8.296935    	139.000000  	0.000000    	Open  	;
 63         	40     	41     	619.000000  	8.000000    	138.000000  	0.000000    	Open  	;
 64         	40     	42     	538.000000  	7.999947    	138.000000  	0.000000    	Open  	;
 65         	42     	41     	668.000000  	8.000000    	138.000000  	0.000000    	Open  	;
 66         	42     	27     	2581.000000 	8.019783    	138.000000  	0.000000    	Open  	;
 67         	24     	43     	544.000000  	8.000000    	140.000000  	0.000000    	Open  	;
 68         	43     	25     	420.000000  	8.000000    	140.000000  	0.000000    	Open  	;
 69         	43     	44     	373.000000  	7.999947    	140.000000  	0.000000    	Open  	;
 70         	44     	26     	556.000000  	8.000000    	140.000000  	0.000000    	Open  	;
 71         	44     	28     	752.000000  	7.999947    	140.000000  	0.000000    	Open  	;
 72         	29     	130        	242.000000  	24.000000   	138.000000  	0.000000    	Open  	;
 73         	21     	47     	91.000000   	8.000000    	139.000000  	0.000000    	Open  	;
 74         	47     	48     	805.000000  	8.000000    	139.000000  	0.000000    	Open  	;
 75         	48     	49     	574.000000  	8.000000    	139.000000  	0.000000    	Open  	;
 76         	49     	22     	158.000000  	8.000000    	139.000000  	0.000000    	Open  	;
 77         	49     	50     	577.000000  	7.999947    	139.000000  	0.000000    	Open  	;
 78         	50     	51     	388.000000  	8.000000    	139.000000  	0.000000    	Open  	;
 79         	51     	48     	236.000000  	8.000000    	139.000000  	0.000000    	Open  	;
 80         	51     	52     	393.000000  	8.000000    	139.000000  	0.000000    	Open  	;
 81         	52     	47     	549.000000  	7.999947    	139.000000  	0.000000    	Open  	;
 82         	52     	50     	1381.000000 	7.999947    	139.000000  	0.000000    	Open  	;
 83         	23     	53     	919.000000  	9.999941    	139.000000  	0.000000    	Open  	;
 84         	53     	54     	386.000000  	9.999970    	139.000000  	0.000000    	Open  	;
 85         	54     	31     	229.000000  	10.000000   	139.000000  	0.000000    	Open  	;
 86         	53     	56     	232.000000  	8.000000    	140.000000  	0.000000    	Open  	;
 87         	56     	55     	390.000000  	8.000000    	140.000000  	0.000000    	Open  	;
 88         	55     	54     	254.000000  	8.000000    	140.000000  	0.000000    	Open  	;
 89         	55     	56     	873.000000  	7.999947    	140.000000  	0.000000    	Open  	;
 90         	32     	57     	945.000000  	7.999947    	140.000000  	0.000000    	Open  	;
 91         	57     	33     	230.000000  	8.000000    	140.000000  	0.000000    	Open  	;
 92         	31     	58     	1155.000000 	10.000000   	139.000000  	0.000000    	Open  	;
 93         	58     	59     	413.000000  	8.000000    	140.000000  	0.000000    	Open  	;
 94         	59     	60     	943.000000  	7.999947    	140.000000  	0.000000    	Open  	;
 95         	60     	59     	196.000000  	8.000000    	140.000000  	0.000000    	Open  	;
 96         	60     	61     	133.000000  	8.000000    	140.000000  	0.000000    	Open  	;
 97         	61     	62     	138.000000  	8.000000    	140.000000  	0.000000    	Open  	;
 98         	62     	63     	187.000000  	8.000000    	140.000000  	0.000000    	Open  	;
 99         	63     	64     	134.000000  	8.000000    	139.000000  	0.000000    	Open  	;
 100        	64     	65     	300.000000  	8.000000    	139.000000  	0.000000    	Open  	;
 101        	65     	66     	65.000000   	8.000000    	139.000000  	0.000000    	Open  	;
 102        	66     	67     	420.000000  	7.999947    	139.000000  	0.000000    	Open  	;
 103        	67     	61     	209.000000  	8.000000    	139.000000  	0.000000    	Open  	;
 104        	66     	67     	398.000000  	7.999947    	139.000000  	0.000000    	Open  	;
 105        	68     	58     	381.000000  	10.000000   	139.000000  	0.000000    	Open  	;
 106        	64     	65     	872.000000  	7.999947    	140.000000  	0.000000    	Open  	;
 107        	65     	68     	199.000000  	8.000000    	140.000000  	0.000000    	Open  	;
 108        	63     	62     	713.000000  	7.999947    	140.000000  	0.000000    	Open  	;
 109        	68     	69     	1095.000000 	10.000000   	139.000000  	0.000000    	Open  	;
 110        	69     	70     	231.000000  	8.000000    	140.000000  	0.000000    	Open  	;
 111        	70     	71     	695.000000  	8.000000    	140.000000  	0.000000    	Open  	;
 112        	70     	72     	528.000000  	8.000000    	140.000000  	0.000000    	Open  	;
 113        	73     	69     	938.000000  	10.000000   	139.000000  	0.000000    	Open  	;
 114        	72     	74     	169.000000  	8.000000    	140.000000  	0.000000    	Open  	;
 115        	74     	73     	127.000000  	8.000000    	140.000000  	0.000000    	Open  	;
 116        	72     	75     	928.000000  	7.999947    	139.000000  	0.000000    	Open  	;
 117        	75     	74     	336.000000  	8.000000    	139.000000  	0.000000    	Open  	;
 118        	75     	76     	772.000000  	8.000000    	139.000000  	0.000000    	Open  	;
 119        	76     	77     	417.000000  	8.000000    	139.000000  	0.000000    	Open  	;
 120        	77     	73     	655.000000  	10.000000   	139.000000  	0.000000    	Open  	;
 121        	76     	78     	167.000000  	8.000000    	139.000000  	0.000000    	Open  	;
 122        	78     	79     	169.000000  	8.000000    	139.000000  	0.000000    	Open  	;
 123        	79     	80     	195.000000  	10.000000   	139.000000  	0.000000    	Open  	;
 124        	80     	81     	333.000000  	10.000000   	139.000000  	0.000000    	Open  	;
 125        	81     	77     	60.000000   	10.000000   	139.000000  	0.000000    	Open  	;
 126        	78     	71     	895.000000  	8.000000    	139.000000  	0.000000    	Open  	;
 127        	80     	82     	372.000000  	8.000000    	139.000000  	0.000000    	Open  	;
 128        	82     	83     	205.000000  	8.000000    	139.000000  	0.000000    	Open  	;
 129        	83     	84     	430.000000  	8.000000    	139.000000  	0.000000    	Open  	;
 130        	84     	81     	152.000000  	8.000000    	139.000000  	0.000000    	Open  	;
 131        	84     	83     	1586.000000 	7.999947    	139.000000  	0.000000    	Open  	;
 132        	82     	85     	174.000000  	8.000000    	139.000000  	0.000000    	Open  	;
 133        	85     	86     	456.000000  	8.000000    	139.000000  	0.000000    	Open  	;
 134        	86     	87     	341.000000  	8.000000    	139.000000  	0.000000    	Open  	;
 135        	87     	85     	507.000000  	8.000000    	139.000000  	0.000000    	Open  	;
 136        	87     	88     	195.000000  	8.000000    	139.000000  	0.000000    	Open  	;
 137        	88     	79     	250.000000  	10.000000   	139.000000  	0.000000    	Open  	;
 138        	88     	89     	191.000000  	10.000000   	139.000000  	0.000000    	Open  	;
 139        	89     	86     	926.000000  	7.999947    	140.000000  	0.000000    	Open  	;
 140        	89     	90     	464.000000  	10.000000   	139.000000  	0.000000    	Open  	;
 141        	90     	91     	178.000000  	10.000000   	139.000000  	0.000000    	Open  	;
 142        	91     	92     	167.000000  	10.000000   	139.000000  	0.000000    	Open  	;
 143        	92     	33     	403.000000  	10.000000   	139.000000  	0.000000    	Open  	;
 144        	90     	93     	143.000000  	8.000000    	139.000000  	0.000000    	Open  	;
 145        	93     	94     	331.000000  	8.000000    	139.000000  	0.000000    	Open  	;
 146        	94     	92     	157.000000  	8.000000    	139.000000  	0.000000    	Open  	;
 147        	93     	94     	1805.000000 	7.999947    	139.000000  	0.000000    	Open  	;
 148        	92     	95     	177.000000  	8.000000    	139.000000  	0.000000    	Open  	;
 149        	95     	96     	332.000000  	8.000000    	139.000000  	0.000000    	Open  	;
 150        	96     	95     	1432.000000 	7.999947    	139.000000  	0.000000    	Open  	;
 151        	91     	97     	489.000000  	8.000000    	139.000000  	0.000000    	Open  	;
 152        	97     	96     	122.000000  	8.000000    	139.000000  	0.000000    	Open  	;
 153        	97     	98     	285.000000  	8.000000    	139.000000  	0.000000    	Open  	;
 154        	98     	99     	597.000000  	8.000000    	139.000000  	0.000000    	Open  	;
 155        	99     	100    	148.000000  	8.000000    	139.000000  	0.000000    	Open  	;
 156        	100    	101    	812.000000  	7.999900    	139.000000  	0.000000    	Open  	;
 157        	101    	98     	152.000000  	8.000000    	139.000000  	0.000000    	Open  	;
 158        	100    	101    	620.000000  	8.000000    	139.000000  	0.000000    	Open  	;
 159        	98     	99     	784.000000  	7.999947    	139.000000  	0.000000    	Open  	;
 160        	97     	71     	1214.000000 	8.000000    	139.000000  	0.000000    	Open  	;
 161        	45     	46     	718.000000  	10.000000   	138.000000  	0.000000    	Open  	;
 162        	46     	120    	315.000000  	10.000000   	138.000000  	0.000000    	Open  	;
 163        	119    	104    	76.000000   	10.000000   	138.000000  	0.000000    	Open  	;
 164        	103    	102    	930.000000  	12.000000   	140.000000  	0.000000    	Open  	;
 165        	102    	131        	559.000000  	16.000000   	140.000000  	0.000000    	Open  	;
 166        	29     	105    	169.000000  	11.974181   	140.000000  	800.000000  	Open  	;
 167        	106    	104    	84.000000   	8.000000    	138.000000  	0.000000    	Open  	;
 168        	103    	121    	291.000000  	12.000000   	140.000000  	0.000000    	Open  	;
 169        	103    	104    	4700.000000 	10.121698   	138.000000  	0.000000    	Open  	;

[PUMPS]
;ID              	Node1           	Node2           	Parameters
 170        	105    	106    	HEAD 0	;
 172        	109    	110    	HEAD 2	;

[VALVES]
;ID              	Node1           	Node2           	Diameter    	Type	Setting     	MinorLoss   
 173       	111    	112    	6.000000    	PRV 	70.000000   	0.000000    	;
 174       	113    	114    	6.000000    	PRV 	80.000000   	0.000000    	;
 175       	115    	116    	10.000000   	PRV 	55.000000   	0.000000    	;
 176       	117    	118    	6.000000    	PRV 	29.762000   	0.000000    	;
 177       	119    	120    	6.000000    	PRV 	45.000000   	0.000000    	;
 178       	121    	122    	6.000000    	PRV 	37.000000   	0.000000    	;
 179       	123    	124    	8.000000    	PRV 	40.000000   	0.000000    	;
 180       	125    	126    	8.000000    	PRV 	16.450000   	0.000000    	;

[TAGS]

[DEMANDS]
;Junction        	Demand      	Pattern         	Category
 45     	9.354966    	0       	;   
 45     	0.200000    	1       	;   
 122    	1.446928    	0       	;   
 122    	0.076960    	1       	;   
 123    	3.243072    	0       	;   
 123    	0.923040    	1       	;   

[STATUS]
;ID              	Status/Setting

[PATTERNS]
;ID              	Multipliers
;
 0       	1.560000    	1.360000    	1.170000    	1.130000    	1.080000    	1.040000    
 0       	1.200000    	0.640000    	1.080000    	0.530000    	0.290000    	0.900000    
 0       	1.110000    	1.060000    	1.000000    	1.650000    	0.550000    	0.740000    
 0       	0.640000    	0.460000    	0.580000    	0.640000    	0.710000    	0.660000    
 0       	0.680000    	0.430000    	0.370000    	0.330000    	0.230000    	0.210000    
 0       	0.060000    	0.100000    	0.100000    	0.140000    	0.090000    	0.100000    
 0       	0.090000    	0.090000    	0.030000    	0.230000    	0.270000    	0.720000    
 0       	0.930000    	1.130000    	1.390000    	1.940000    	1.900000    	1.830000    
 0       	2.730000    	1.740000    	1.290000    	1.410000    	1.390000    	1.350000    
 0       	1.190000    	1.340000    	0.950000    	1.270000    	1.280000    	1.090000    
 0       	1.010000    	1.130000    	1.000000    	0.770000    	0.670000    	0.760000    
 0       	0.760000    	0.710000    	0.580000    	0.860000    	0.960000    	0.970000    
 0       	0.820000    	0.710000    	0.650000    	0.620000    	0.440000    	0.480000    
 0       	0.550000    	0.560000    	0.610000    	0.600000    	0.440000    	0.460000    
 0       	0.440000    	0.400000    	0.440000    	0.690000    	0.760000    	1.190000    
 0       	1.330000    	1.730000    	1.970000    	2.370000    	2.280000    	2.100000    
;
 1       	80.000000   	80.000000   	80.000000   	80.000000   	80.000000   	80.000000   
 1       	80.000000   	80.000000   	80.000000   	80.000000   	80.000000   	80.000000   
 1       	80.000000   	80.000000   	80.000000   	80.000000   	80.000000   	80.000000   
 1       	0.000000    	0.000000    	0.000000    	0.000000    	0.000000    	0.000000    
 1       	0.000000    	0.000000    	0.000000    	0.000000    	0.000000    	0.000000    
 1       	0.000000    	0.000000    	0.000000    	0.000000    	0.000000    	0.000000    
 1       	0.000000    	0.000000    	0.000000    	0.000000    	0.000000    	0.000000    
 1       	0.000000    	0.000000    	0.000000    	0.000000    	80.000000   	80.000000   
 1       	80.000000   	80.000000   	80.000000   	80.000000   	80.000000   	80.000000   
 1       	80.000000   	80.000000   	80.000000   	80.000000   	80.000000   	80.000000   
 1       	80.000000   	80.000000   	80.000000   	80.000000   	80.000000   	0.000000    
 1       	0.000000    	0.000000    	0.000000    	0.000000    	0.000000    	0.000000    
 1       	0.000000    	0.000000    	0.000000    	0.000000    	0.000000    	0.000000    
 1       	0.000000    	0.000000    	0.000000    	0.000000    	0.000000    	0.000000    
 1       	0.000000    	0.000000    	0.000000    	0.000000    	0.000000    	0.000000    
 1       	0.000000    	0.000000    	0.000000    	80.000000   	80.000000   	80.000000   
;
 2       	0.800000    	0.840000    	0.880000    	0.970000    	1.070000    	1.010000    
 2       	0.960000    	0.970000    	0.990000    	1.080000    	1.180000    	1.190000    
 2       	1.190000    	1.220000    	1.250000    	1.250000    	1.260000    	1.220000    
 2       	1.190000    	1.160000    	1.140000    	1.120000    	1.110000    	1.100000    
 2       	1.100000    	1.060000    	1.020000    	1.010000    	1.010000    	1.000000    
 2       	1.000000    	0.850000    	0.710000    	0.700000    	0.690000    	0.740000    
 2       	0.790000    	0.800000    	0.800000    	0.800000    	0.810000    	0.770000    
 2       	0.740000    	0.740000    	0.750000    	0.780000    	0.810000    	0.800000    
;
 3       	423.300000  	225.000000  	26.700000   	26.700000   	26.700000   	26.700000   
 3       	26.700000   	26.700000   	26.700000   	202.100000  	377.500000  	202.100000  
 3       	25.800000   	25.900000   	25.900000   	26.000000   	26.000000   	26.100000   
 3       	26.100000   	26.100000   	26.200000   	26.300000   	26.300000   	26.300000   
 3       	26.300000   	26.300000   	26.400000   	239.900000  	453.500000  	240.500000  
 3       	27.400000   	267.800000  	508.100000  	462.100000  	416.000000  	327.500000  
 3       	238.900000  	133.000000  	27.100000   	27.100000   	27.100000   	27.100000   
 3       	27.100000   	248.000000  	468.900000  	360.700000  	252.400000  	449.500000  
 3       	646.500000  	336.600000  	26.800000   	198.900000  	371.100000  	198.400000  
 3       	25.800000   	25.800000   	25.800000   	25.800000   	25.800000   	25.900000   
 3       	26.000000   	26.000000   	26.000000   	26.100000   	26.200000   	26.200000   
 3       	26.200000   	26.200000   	26.300000   	26.300000   	26.300000   	26.300000   
 3       	26.300000   	228.300000  	430.200000  	657.200000  	884.200000  	884.200000  
 3       	884.300000  	884.400000  	884.500000  	884.500000  	884.500000  	663.300000  
 3       	442.100000  	234.200000  	26.300000   	47.200000   	68.000000   	352.200000  
 3       	636.400000  	331.200000  	26.000000   	26.100000   	26.100000   	224.700000  

[CURVES]
;ID              	X-Value     	Y-Value
;PUMP:   
 0         	0.000000    	445.000000  
 0         	790.000000  	365.000000  
 0         	1460.000000 	120.000000  
;PUMP:   
 1         	0.000000    	730.000000  
 1         	1000.000000 	500.000000  
 1         	1350.000000 	260.000000  
;PUMP:   
 2         	0.000000    	740.000000  
 2         	2000.000000 	530.000000  
 2         	3240.000000 	205.000000  

[CONTROLS]
LINK 180 Closed At Time 0.000000




[RULES]

RULE RULE-0
IF TANK 130 LEVEL >= 16.000000
THEN PUMP 172 STATUS IS CLOSED
PRIORITY 1.000000

RULE RULE-1
IF TANK 130 LEVEL <= 12.100000
THEN PUMP 172 STATUS IS OPEN
PRIORITY 1.000000

RULE RULE-3
IF TANK 131 LEVEL >= 18.400000
THEN PUMP 170 STATUS IS CLOSED
PRIORITY 1.000000

RULE RULE-4
IF TANK 131 LEVEL <= 15.400000
THEN PUMP 170 STATUS IS OPEN
Priority 1.000000




[ENERGY]
 Global Efficiency  	75.000000
 Global Price       	0
 Demand Charge      	0.000000

[EMITTERS]
;Junction        	Coefficient

[QUALITY]
;Node            	InitQual

[SOURCES]
;Node            	Type        	Quality     	Pattern

[REACTIONS]
;Type     	Pipe/Tank       	Coefficient


[REACTIONS]
 Order Bulk            	1
 Order Tank            	1
 Order Wall            	1
 Global Bulk           	0.000000
 Global Wall           	0.000000
 Limiting Potential    	0
 Roughness Correlation 	0

[MIXING]